Circuit: * C:\Users\thebh\Desktop\dtf\git\clay\Circuit\R6_1\LTSpice\softpower_2.asc

.OP point found by inspection.

Date: Sun Feb 07 17:29:55 2016
Total elapsed time: 0.159 seconds.

tnom = 27
temp = 27
method = modified trap
totiter = 940
traniter = 940
tranpoints = 368
accept = 333
rejected = 35
matrix size = 18
fillins = 0
solver = Normal
Matrix Compiler1: 968 bytes object code size  0.4/0.2/[0.1]
Matrix Compiler2: off  [0.2]/0.2/0.2


