Circuit: * C:\Users\thebh\Desktop\dtf\git\clay\Circuit\R6_1\LTSpice\softpower_3.asc

.OP point found by inspection.

Date: Sun Feb 07 16:15:24 2016
Total elapsed time: 0.070 seconds.

tnom = 27
temp = 27
method = modified trap
totiter = 1336
traniter = 1336
tranpoints = 476
accept = 409
rejected = 67
matrix size = 12
fillins = 0
solver = Normal
Matrix Compiler1: 490 bytes object code size  0.3/0.1/[0.1]
Matrix Compiler2: 852 bytes object code size  0.1/0.2/[0.0]


